Version 4
SHEET 1 1996 2560
WIRE -32 288 -64 288
WIRE 96 288 48 288
WIRE 480 288 448 288
WIRE 576 288 560 288
WIRE 608 288 576 288
WIRE -32 416 -64 416
WIRE 64 416 48 416
WIRE 96 416 64 416
WIRE 208 416 160 416
WIRE 848 512 816 512
WIRE 1248 512 1216 512
WIRE 848 544 816 544
WIRE 1248 544 1216 544
WIRE 848 576 816 576
WIRE 1040 576 992 576
WIRE 1248 576 1216 576
WIRE 1440 592 1392 592
WIRE -32 608 -64 608
WIRE 96 608 48 608
WIRE 848 608 816 608
WIRE 1248 608 1216 608
WIRE 848 640 816 640
WIRE 1248 640 1216 640
WIRE -32 736 -64 736
WIRE 96 736 48 736
WIRE -32 864 -64 864
WIRE 96 864 48 864
WIRE 1120 976 1056 976
WIRE -32 992 -64 992
WIRE 96 992 48 992
WIRE 752 992 720 992
WIRE 1136 1008 1104 1008
WIRE 752 1024 720 1024
WIRE 992 1040 880 1040
WIRE 1104 1040 1104 1008
WIRE 1104 1040 992 1040
WIRE 1120 1040 1120 976
WIRE 1136 1040 1120 1040
WIRE 752 1056 720 1056
WIRE 1376 1056 1264 1056
WIRE 1632 1056 1600 1056
WIRE 1136 1072 1104 1072
WIRE 752 1088 720 1088
WIRE 1376 1088 1344 1088
WIRE 1632 1088 1504 1088
WIRE 1136 1104 1104 1104
WIRE -32 1120 -64 1120
WIRE 96 1120 48 1120
WIRE 1376 1120 1344 1120
WIRE 1632 1120 1600 1120
WIRE 1808 1120 1776 1120
WIRE 928 1136 928 1104
WIRE 960 1136 960 1104
WIRE 992 1136 992 1040
WIRE 1024 1136 1024 1104
WIRE 1632 1152 1600 1152
WIRE 1632 1184 1600 1184
WIRE -32 1264 -64 1264
WIRE 96 1264 48 1264
WIRE 1376 1312 1344 1312
WIRE 752 1344 720 1344
WIRE 1376 1344 1344 1344
WIRE 1600 1344 1504 1344
WIRE 976 1360 976 1264
WIRE 1024 1360 976 1360
WIRE 1136 1360 1024 1360
WIRE 752 1376 720 1376
WIRE 1376 1376 1344 1376
WIRE 1600 1376 1600 1344
WIRE 1632 1376 1600 1376
WIRE 992 1392 880 1392
WIRE 1136 1392 992 1392
WIRE 752 1408 720 1408
WIRE 1632 1408 1264 1408
WIRE 1136 1424 1104 1424
WIRE 752 1440 720 1440
WIRE 1632 1440 1600 1440
WIRE 1840 1440 1776 1440
WIRE 1136 1456 1104 1456
WIRE -320 1472 -352 1472
WIRE -192 1472 -240 1472
WIRE 1632 1472 1568 1472
WIRE 928 1488 928 1456
WIRE 960 1488 960 1456
WIRE 992 1488 992 1392
WIRE 1024 1488 1024 1360
WIRE 1632 1504 1568 1504
WIRE 1600 1552 1600 1440
WIRE 1808 1552 1808 1120
WIRE 1808 1552 1600 1552
WIRE -320 1600 -352 1600
WIRE -192 1600 -240 1600
WIRE -32 1600 -64 1600
WIRE 96 1600 48 1600
WIRE 752 1696 720 1696
WIRE 976 1712 976 1616
WIRE 1024 1712 976 1712
WIRE 1136 1712 1024 1712
WIRE -32 1728 -64 1728
WIRE 96 1728 48 1728
WIRE 752 1728 720 1728
WIRE 992 1744 880 1744
WIRE 1136 1744 992 1744
WIRE 752 1760 720 1760
WIRE 1376 1760 1264 1760
WIRE 1632 1760 1600 1760
WIRE 1136 1776 1104 1776
WIRE 752 1792 720 1792
WIRE 1376 1792 1344 1792
WIRE 1632 1792 1504 1792
WIRE 1136 1808 1104 1808
WIRE 1376 1824 1344 1824
WIRE 1632 1824 1600 1824
WIRE 1808 1824 1776 1824
WIRE 928 1840 928 1808
WIRE 960 1840 960 1808
WIRE 992 1840 992 1744
WIRE 1024 1840 1024 1712
WIRE -32 1856 -64 1856
WIRE 96 1856 48 1856
WIRE 1632 1856 1568 1856
WIRE 1632 1888 1568 1888
WIRE 1600 1936 1600 1824
WIRE 1840 1936 1840 1440
WIRE 1840 1936 1600 1936
WIRE -32 1984 -64 1984
WIRE 96 1984 48 1984
WIRE 1632 2032 1600 2032
WIRE 976 2064 976 1968
WIRE 1632 2064 976 2064
WIRE 1632 2096 1600 2096
WIRE 1856 2112 1776 2112
WIRE -32 2128 -64 2128
WIRE 96 2128 48 2128
WIRE 1632 2128 1568 2128
WIRE 1632 2160 1568 2160
WIRE 1600 2208 1600 2096
WIRE 1808 2208 1808 1824
WIRE 1808 2208 1600 2208
WIRE -96 2256 -96 2240
WIRE 416 2256 416 2240
WIRE -96 2288 -96 2256
WIRE 416 2288 416 2256
WIRE -128 2304 -208 2304
WIRE 32 2304 -64 2304
WIRE 384 2304 304 2304
WIRE 544 2304 448 2304
WIRE -208 2368 -208 2304
WIRE -96 2368 -96 2320
WIRE 304 2368 304 2304
WIRE 416 2368 416 2320
WIRE -208 2480 -208 2448
WIRE 304 2480 304 2448
FLAG -64 288 0
FLAG -64 416 0
FLAG 96 288 A
FLAG 64 416 B
FLAG 208 416 Bbar
FLAG -64 608 0
FLAG 96 608 A0
FLAG -64 736 0
FLAG 96 736 A1
FLAG -64 864 0
FLAG 96 864 A2
FLAG -64 992 0
FLAG 96 992 A3
FLAG -64 1120 0
FLAG 96 1120 Zero
FLAG -64 1264 0
FLAG 96 1264 One
FLAG 720 992 X0
IOPIN 720 992 In
FLAG 720 1024 X3
IOPIN 720 1024 In
FLAG 720 1344 X1
IOPIN 720 1344 In
FLAG 720 1376 X3
IOPIN 720 1376 In
FLAG 720 1696 X2
IOPIN 720 1696 In
FLAG 720 1728 X3
IOPIN 720 1728 In
FLAG 928 1104 VSS
IOPIN 928 1104 In
FLAG 960 1104 VDD
IOPIN 960 1104 In
FLAG 1024 1104 X3
IOPIN 1024 1104 In
FLAG 960 1456 VDD
IOPIN 960 1456 In
FLAG 928 1456 VSS
IOPIN 928 1456 In
FLAG 1056 976 X3
IOPIN 1056 976 In
FLAG 928 1808 VSS
IOPIN 928 1808 In
FLAG 960 1808 VDD
IOPIN 960 1808 In
FLAG 1600 1120 One
IOPIN 1600 1120 In
FLAG 1600 1152 VDD
IOPIN 1600 1152 In
FLAG 1600 1184 VSS
IOPIN 1600 1184 In
FLAG 1568 1472 VDD
IOPIN 1568 1472 In
FLAG 1568 1504 VSS
IOPIN 1568 1504 In
FLAG 1568 1856 VDD
IOPIN 1568 1856 In
FLAG 1568 1888 VSS
IOPIN 1568 1888 In
FLAG 1568 2128 VDD
IOPIN 1568 2128 In
FLAG 1568 2160 VSS
IOPIN 1568 2160 In
FLAG 1856 2112 OUT
IOPIN 1856 2112 Out
FLAG 1600 1056 T0
IOPIN 1600 1056 In
FLAG 1600 2032 One
IOPIN 1600 2032 In
FLAG -64 1600 0
FLAG 96 1600 X1
FLAG -64 1728 0
FLAG 96 1728 X2
FLAG -64 1856 0
FLAG 96 1856 X3
FLAG -64 1984 0
FLAG 96 1984 VSS
FLAG -64 2128 0
FLAG 96 2128 VDD
FLAG -352 1472 0
FLAG -192 1472 T0
FLAG -352 1600 0
FLAG -192 1600 T1
FLAG 1104 1072 VDD
IOPIN 1104 1072 In
FLAG 1104 1104 VSS
IOPIN 1104 1104 In
FLAG 1104 1424 VDD
IOPIN 1104 1424 In
FLAG 1104 1456 VSS
IOPIN 1104 1456 In
FLAG 1104 1776 VDD
IOPIN 1104 1776 In
FLAG 1104 1808 VSS
IOPIN 1104 1808 In
FLAG 720 1056 VDD
IOPIN 720 1056 In
FLAG 720 1088 VSS
IOPIN 720 1088 In
FLAG 720 1408 VDD
IOPIN 720 1408 In
FLAG 720 1440 VSS
IOPIN 720 1440 In
FLAG 720 1760 VDD
IOPIN 720 1760 In
FLAG 720 1792 VSS
IOPIN 720 1792 In
FLAG 1344 1792 VDD
IOPIN 1344 1792 In
FLAG 1344 1824 VSS
IOPIN 1344 1824 In
FLAG 1344 1344 VDD
IOPIN 1344 1344 In
FLAG 1344 1376 VSS
IOPIN 1344 1376 In
FLAG 1344 1088 VDD
IOPIN 1344 1088 In
FLAG 1344 1120 VSS
IOPIN 1344 1120 In
FLAG 1344 1312 T1
IOPIN 1344 1312 In
FLAG 1600 1760 T2
IOPIN 1600 1760 In
FLAG 816 512 A
FLAG 816 544 B
FLAG 1040 576 Cout
FLAG 816 608 VDD
FLAG 816 640 VSS
FLAG 448 288 0
FLAG 576 288 Cin
FLAG 816 576 Cin
FLAG 1216 512 A
FLAG 1216 544 B
FLAG 1216 608 VDD
FLAG 1216 640 VSS
FLAG 1216 576 Cin
FLAG 1440 592 S
FLAG 416 2256 VDD
FLAG 416 2368 VSS
FLAG 544 2304 T2
FLAG 304 2480 VSS
FLAG -96 2256 VDD
FLAG -96 2368 VSS
FLAG 32 2304 X0
FLAG -208 2480 VSS
SYMBOL voltage 64 288 R90
WINDOW 0 -32 56 VBottom 2
WINDOW 3 32 56 VTop 2
SYMATTR InstName V1
SYMATTR Value PULSE(0 1 0 1e-11 1e-11 4e-9 8e-9)
SYMBOL voltage 64 416 R90
WINDOW 0 -32 56 VBottom 2
WINDOW 3 32 56 VTop 2
SYMATTR InstName V2
SYMATTR Value PULSE(0 1 0 1e-11 1e-11 2e-9 4e-9)
SYMBOL Digital/inv 96 352 R0
SYMATTR InstName A1
SYMBOL voltage 64 608 R90
WINDOW 0 -32 56 VBottom 2
WINDOW 3 32 56 VTop 2
SYMATTR InstName V3
SYMATTR Value 1
SYMBOL voltage 64 736 R90
WINDOW 0 -32 56 VBottom 2
WINDOW 3 32 56 VTop 2
SYMATTR InstName V4
SYMATTR Value 1
SYMBOL voltage 64 864 R90
WINDOW 0 -32 56 VBottom 2
WINDOW 3 32 56 VTop 2
SYMATTR InstName V5
SYMATTR Value 1
SYMBOL voltage 64 992 R90
WINDOW 0 -32 56 VBottom 2
WINDOW 3 32 56 VTop 2
SYMATTR InstName V6
SYMATTR Value 0
SYMBOL voltage 64 1120 R90
WINDOW 0 -32 56 VBottom 2
WINDOW 3 32 56 VTop 2
SYMATTR InstName V7
SYMATTR Value 0
SYMBOL voltage 64 1264 R90
WINDOW 0 -32 56 VBottom 2
WINDOW 3 32 56 VTop 2
SYMATTR InstName V8
SYMATTR Value 1
SYMBOL cmos_and 976 1200 R90
SYMATTR InstName AND0
SYMBOL cmos_and 976 1552 R90
SYMATTR InstName AND1
SYMBOL cmos_and 976 1904 R90
SYMATTR InstName AND2
SYMBOL voltage 64 1600 R90
WINDOW 0 -32 56 VBottom 2
WINDOW 3 32 56 VTop 2
SYMATTR InstName V10
SYMATTR Value 1
SYMBOL voltage 64 1728 R90
WINDOW 0 -32 56 VBottom 2
WINDOW 3 32 56 VTop 2
SYMATTR InstName V11
SYMATTR Value 0
SYMBOL voltage 64 1856 R90
WINDOW 0 -32 56 VBottom 2
WINDOW 3 32 56 VTop 2
SYMATTR InstName V12
SYMATTR Value 1
SYMBOL voltage 64 1984 R90
WINDOW 0 -32 56 VBottom 2
WINDOW 3 32 56 VTop 2
SYMATTR InstName V13
SYMATTR Value 0
SYMBOL voltage 64 2128 R90
WINDOW 0 -32 56 VBottom 2
WINDOW 3 32 56 VTop 2
SYMATTR InstName V14
SYMATTR Value 0.84
SYMBOL voltage -224 1472 R90
WINDOW 0 -32 56 VBottom 2
WINDOW 3 32 56 VTop 2
SYMATTR InstName V15
SYMATTR Value 0
SYMBOL voltage -224 1600 R90
WINDOW 0 -32 56 VBottom 2
WINDOW 3 32 56 VTop 2
SYMATTR InstName V16
SYMATTR Value 1
SYMBOL cmp3_fulladderodd 1696 2096 R0
SYMATTR InstName CMP3_FA_ODD
SYMBOL cmp0_final_sized 1696 1120 R0
SYMATTR InstName CMP0
SYMBOL cmp1_final_sized 1696 1440 R0
SYMATTR InstName CMP1
SYMBOL cmp2_final_sized 1696 1824 R0
SYMATTR InstName CMP2
SYMBOL xor0_sized 816 1040 R0
SYMATTR InstName XOR0
SYMBOL xor3_sized 1200 1056 R0
SYMATTR InstName XOR3
SYMBOL inverter_sized 1440 1088 R0
SYMATTR InstName INV0
SYMBOL inverter_sized 1440 1344 R0
SYMATTR InstName INV1
SYMBOL inverter_sized 1440 1792 R0
SYMATTR InstName INV2
SYMBOL voltage 576 288 R90
WINDOW 0 -32 56 VBottom 2
WINDOW 3 32 56 VTop 2
SYMATTR InstName V18
SYMATTR Value PULSE(0 1 0 1e-11 1e-11 1e-9 2e-9)
SYMBOL cmp3_fulladderodd 1312 576 R0
SYMATTR InstName X2
SYMBOL xor0_sized 816 1744 R0
SYMATTR InstName XOR2
SYMBOL xor0_sized 816 1392 R0
SYMATTR InstName XOR1
SYMBOL xor0_sized 1200 1408 R0
SYMATTR InstName XOR4
SYMBOL xor0_sized 1200 1760 R0
SYMATTR InstName XOR5
SYMBOL voltage 304 2352 R0
WINDOW 123 0 0 Left 0
WINDOW 39 0 0 Left 0
SYMATTR InstName V9
SYMATTR Value PWL file=thr2.txt
SYMBOL BUF 416 2304 R0
SYMATTR InstName X1
SYMBOL voltage -208 2352 R0
WINDOW 123 0 0 Left 0
WINDOW 39 0 0 Left 0
SYMATTR InstName V19
SYMATTR Value PWL file=x0.txt
SYMBOL BUF -96 2304 R0
SYMATTR InstName X3
TEXT 128 56 Left 2 !.inc /Users/lanalim/Downloads/cmosedu_models.txt
TEXT 128 96 Left 2 !.tran 50n
