Version 4
SHEET 1 1620 1372
WIRE 1072 368 592 368
WIRE 864 416 832 416
WIRE 832 464 832 416
WIRE 1072 528 1072 368
WIRE 784 544 736 544
WIRE 1056 576 1008 576
WIRE 1168 576 1152 576
WIRE 1200 576 1168 576
WIRE 432 608 400 608
WIRE 1104 608 1104 576
WIRE 1168 608 1168 576
WIRE 1168 608 1104 608
WIRE 432 640 400 640
WIRE 592 640 592 368
WIRE 592 640 560 640
WIRE 432 672 400 672
WIRE 736 672 736 544
WIRE 736 672 688 672
WIRE 832 672 832 560
WIRE 912 672 832 672
WIRE 1008 672 1008 576
WIRE 1008 672 912 672
WIRE 1200 672 1200 576
WIRE 1248 672 1200 672
WIRE 832 736 832 672
WIRE 1008 752 1008 672
WIRE 1056 752 1008 752
WIRE 1200 752 1200 672
WIRE 1200 752 1152 752
WIRE 736 816 736 672
WIRE 784 816 736 816
WIRE 1136 816 1136 800
WIRE 592 880 592 640
WIRE 832 880 832 832
WIRE 832 880 592 880
FLAG 688 672 A
IOPIN 688 672 In
FLAG 864 416 B
IOPIN 864 416 In
FLAG 1248 672 A
IOPIN 1248 672 In
FLAG 912 672 Out
IOPIN 912 672 Out
FLAG 1136 816 B
IOPIN 1136 816 In
FLAG 400 608 B
IOPIN 400 608 In
FLAG 400 640 VDD
IOPIN 400 640 In
FLAG 400 672 VSS
IOPIN 400 672 In
SYMBOL nmos4 1152 528 R90
SYMATTR InstName M2
SYMATTR Value2 l=1e-7 w={W_TG}
SYMBOL pmos4 1056 800 R270
SYMATTR InstName M1
SYMATTR Value2 l=1e-7 w={W_TG}
SYMBOL pmos4 784 464 R0
SYMATTR InstName M3
SYMATTR Value2 l=1e-7 w={W_PMOS}
SYMBOL nmos4 784 736 R0
SYMATTR InstName M4
SYMATTR Value2 l=1e-7 w={W_NMOS}
SYMBOL inverter_xor0 496 640 R0
SYMATTR InstName X1
TEXT -32 248 Left 2 !.inc /Users/lanalim/Downloads/cmosedu_models.txt
TEXT -32 296 Left 2 !.tran 8ns
TEXT -24 400 Left 2 !.param W_PMOS=0.6u
TEXT -24 432 Left 2 !.param W_NMOS=0.4u\n.param W_TG=0.4u
