Version 4
SHEET 1 1084 988
WIRE 256 -256 192 -256
WIRE -112 -240 -144 -240
WIRE 272 -224 240 -224
WIRE -112 -208 -144 -208
WIRE 128 -192 16 -192
WIRE 240 -192 240 -224
WIRE 240 -192 128 -192
WIRE 256 -192 256 -256
WIRE 272 -192 256 -192
WIRE -112 -176 -144 -176
WIRE 512 -176 400 -176
WIRE 768 -176 736 -176
WIRE 272 -160 240 -160
WIRE -112 -144 -144 -144
WIRE 512 -144 480 -144
WIRE 768 -144 640 -144
WIRE 272 -128 240 -128
WIRE 512 -112 480 -112
WIRE 768 -112 736 -112
WIRE 944 -112 912 -112
WIRE 64 -96 64 -128
WIRE 96 -96 96 -128
WIRE 128 -96 128 -192
WIRE 160 -96 160 -128
WIRE 768 -80 736 -80
WIRE 768 -48 736 -48
WIRE 512 80 480 80
WIRE -112 112 -144 112
WIRE 512 112 480 112
WIRE 736 112 640 112
WIRE 112 128 112 32
WIRE 160 128 112 128
WIRE 272 128 160 128
WIRE -112 144 -144 144
WIRE 512 144 480 144
WIRE 736 144 736 112
WIRE 768 144 736 144
WIRE 128 160 16 160
WIRE 272 160 128 160
WIRE -112 176 -144 176
WIRE 768 176 400 176
WIRE 272 192 240 192
WIRE -112 208 -144 208
WIRE 768 208 736 208
WIRE 976 208 912 208
WIRE 272 224 240 224
WIRE 768 240 704 240
WIRE 64 256 64 224
WIRE 96 256 96 224
WIRE 128 256 128 160
WIRE 160 256 160 128
WIRE 768 272 704 272
WIRE 736 320 736 208
WIRE 944 320 944 -112
WIRE 944 320 736 320
WIRE -112 464 -144 464
WIRE 112 480 112 384
WIRE 160 480 112 480
WIRE 272 480 160 480
WIRE -112 496 -144 496
WIRE 128 512 16 512
WIRE 272 512 128 512
WIRE -112 528 -144 528
WIRE 512 528 400 528
WIRE 768 528 736 528
WIRE 272 544 240 544
WIRE -112 560 -144 560
WIRE 512 560 480 560
WIRE 768 560 640 560
WIRE 272 576 240 576
WIRE 512 592 480 592
WIRE 768 592 736 592
WIRE 944 592 912 592
WIRE 64 608 64 576
WIRE 96 608 96 576
WIRE 128 608 128 512
WIRE 160 608 160 480
WIRE 768 624 704 624
WIRE 768 656 704 656
WIRE 736 704 736 592
WIRE 976 704 976 208
WIRE 976 704 736 704
WIRE 768 800 736 800
WIRE 112 832 112 736
WIRE 768 832 112 832
WIRE 768 864 736 864
WIRE 992 880 912 880
WIRE 768 896 704 896
WIRE 768 928 704 928
WIRE 736 976 736 864
WIRE 944 976 944 592
WIRE 944 976 736 976
FLAG -144 -240 X0
IOPIN -144 -240 In
FLAG -144 -208 X3
IOPIN -144 -208 In
FLAG -144 112 X1
IOPIN -144 112 In
FLAG -144 144 X3
IOPIN -144 144 In
FLAG -144 464 X2
IOPIN -144 464 In
FLAG -144 496 X3
IOPIN -144 496 In
FLAG 64 -128 VSS
IOPIN 64 -128 In
FLAG 96 -128 VDD
IOPIN 96 -128 In
FLAG 160 -128 X3
IOPIN 160 -128 In
FLAG 96 224 VDD
IOPIN 96 224 In
FLAG 64 224 VSS
IOPIN 64 224 In
FLAG 64 576 VSS
IOPIN 64 576 In
FLAG 96 576 VDD
IOPIN 96 576 In
FLAG 736 -112 One
IOPIN 736 -112 In
FLAG 736 -80 VDD
IOPIN 736 -80 In
FLAG 736 -48 VSS
IOPIN 736 -48 In
FLAG 704 240 VDD
IOPIN 704 240 In
FLAG 704 272 VSS
IOPIN 704 272 In
FLAG 704 624 VDD
IOPIN 704 624 In
FLAG 704 656 VSS
IOPIN 704 656 In
FLAG 704 896 VDD
IOPIN 704 896 In
FLAG 704 928 VSS
IOPIN 704 928 In
FLAG 992 880 OUT
IOPIN 992 880 Out
FLAG 736 -176 T0
IOPIN 736 -176 In
FLAG 736 800 One
IOPIN 736 800 In
FLAG 240 -160 VDD
IOPIN 240 -160 In
FLAG 240 -128 VSS
IOPIN 240 -128 In
FLAG 240 192 VDD
IOPIN 240 192 In
FLAG 240 224 VSS
IOPIN 240 224 In
FLAG 240 544 VDD
IOPIN 240 544 In
FLAG 240 576 VSS
IOPIN 240 576 In
FLAG -144 -176 VDD
IOPIN -144 -176 In
FLAG -144 -144 VSS
IOPIN -144 -144 In
FLAG -144 176 VDD
IOPIN -144 176 In
FLAG -144 208 VSS
IOPIN -144 208 In
FLAG -144 528 VDD
IOPIN -144 528 In
FLAG -144 560 VSS
IOPIN -144 560 In
FLAG 480 560 VDD
IOPIN 480 560 In
FLAG 480 592 VSS
IOPIN 480 592 In
FLAG 480 112 VDD
IOPIN 480 112 In
FLAG 480 144 VSS
IOPIN 480 144 In
FLAG 480 -144 VDD
IOPIN 480 -144 In
FLAG 480 -112 VSS
IOPIN 480 -112 In
FLAG 480 80 T1
IOPIN 480 80 In
FLAG 736 528 T2
IOPIN 736 528 In
FLAG 192 -256 X3
IOPIN 192 -256 In
SYMBOL cmos_and 112 -32 R90
SYMATTR InstName AND1
SYMBOL cmos_and 112 320 R90
SYMATTR InstName AND2
SYMBOL cmos_and 112 672 R90
SYMATTR InstName AND3
SYMBOL cmp3_fulladderodd 832 864 R0
SYMATTR InstName CMP1
SYMBOL cmp0_final_sized 832 -112 R0
SYMATTR InstName CMP2
SYMBOL cmp1_final_sized 832 208 R0
SYMATTR InstName CMP3
SYMBOL cmp2_final_sized 832 592 R0
SYMATTR InstName CMP4
SYMBOL xor0_sized -48 -192 R0
SYMATTR InstName XOR1
SYMBOL xor0_sized -48 160 R0
SYMATTR InstName XOR2
SYMBOL xor0_sized -48 512 R0
SYMATTR InstName XOR3
SYMBOL xor3_sized 336 -176 R0
SYMATTR InstName XOR4
SYMBOL xor3_sized 336 176 R0
SYMATTR InstName XOR5
SYMBOL xor3_sized 336 528 R0
SYMATTR InstName XOR6
SYMBOL inverter_sized 576 -144 R0
SYMATTR InstName INV1
SYMBOL inverter_sized 576 112 R0
SYMATTR InstName INV2
SYMBOL inverter_sized 576 560 R0
SYMATTR InstName INV3
