Version 4
SHEET 1 1068 876
WIRE 240 -368 176 -368
WIRE -128 -352 -160 -352
WIRE 256 -336 224 -336
WIRE -128 -320 -160 -320
WIRE 112 -304 0 -304
WIRE 224 -304 224 -336
WIRE 224 -304 112 -304
WIRE 240 -304 240 -368
WIRE 256 -304 240 -304
WIRE -128 -288 -160 -288
WIRE 496 -288 384 -288
WIRE 752 -288 720 -288
WIRE 256 -272 224 -272
WIRE -128 -256 -160 -256
WIRE 496 -256 464 -256
WIRE 752 -256 624 -256
WIRE 256 -240 224 -240
WIRE 496 -224 464 -224
WIRE 752 -224 720 -224
WIRE 928 -224 896 -224
WIRE 48 -208 48 -240
WIRE 80 -208 80 -240
WIRE 112 -208 112 -304
WIRE 144 -208 144 -240
WIRE 752 -192 720 -192
WIRE 752 -160 720 -160
WIRE 496 -32 464 -32
WIRE -128 0 -160 0
WIRE 496 0 464 0
WIRE 720 0 624 0
WIRE 96 16 96 -80
WIRE 144 16 96 16
WIRE 256 16 144 16
WIRE -128 32 -160 32
WIRE 496 32 464 32
WIRE 720 32 720 0
WIRE 752 32 720 32
WIRE 112 48 0 48
WIRE 256 48 112 48
WIRE -128 64 -160 64
WIRE 752 64 384 64
WIRE 256 80 224 80
WIRE -128 96 -160 96
WIRE 752 96 720 96
WIRE 960 96 896 96
WIRE 256 112 224 112
WIRE 752 128 688 128
WIRE 48 144 48 112
WIRE 80 144 80 112
WIRE 112 144 112 48
WIRE 144 144 144 16
WIRE 752 160 688 160
WIRE 720 208 720 96
WIRE 928 208 928 -224
WIRE 928 208 720 208
WIRE -128 352 -160 352
WIRE 96 368 96 272
WIRE 144 368 96 368
WIRE 256 368 144 368
WIRE -128 384 -160 384
WIRE 112 400 0 400
WIRE 256 400 112 400
WIRE -128 416 -160 416
WIRE 496 416 384 416
WIRE 752 416 720 416
WIRE 256 432 224 432
WIRE -128 448 -160 448
WIRE 496 448 464 448
WIRE 752 448 624 448
WIRE 256 464 224 464
WIRE 496 480 464 480
WIRE 752 480 720 480
WIRE 928 480 896 480
WIRE 48 496 48 464
WIRE 80 496 80 464
WIRE 112 496 112 400
WIRE 144 496 144 368
WIRE 752 512 688 512
WIRE 752 544 688 544
WIRE 720 592 720 480
WIRE 960 592 960 96
WIRE 960 592 720 592
WIRE 752 688 720 688
WIRE 96 720 96 624
WIRE 752 720 96 720
WIRE 752 752 720 752
WIRE 976 768 896 768
WIRE 752 784 688 784
WIRE 752 816 688 816
WIRE 720 864 720 752
WIRE 928 864 928 480
WIRE 928 864 720 864
FLAG -160 -352 X0
IOPIN -160 -352 In
FLAG -160 -320 X3
IOPIN -160 -320 In
FLAG -160 0 X1
IOPIN -160 0 In
FLAG -160 32 X3
IOPIN -160 32 In
FLAG -160 352 X2
IOPIN -160 352 In
FLAG -160 384 X3
IOPIN -160 384 In
FLAG 48 -240 VSS
IOPIN 48 -240 In
FLAG 80 -240 VDD
IOPIN 80 -240 In
FLAG 144 -240 X3
IOPIN 144 -240 In
FLAG 80 112 VDD
IOPIN 80 112 In
FLAG 48 112 VSS
IOPIN 48 112 In
FLAG 48 464 VSS
IOPIN 48 464 In
FLAG 80 464 VDD
IOPIN 80 464 In
FLAG 720 -224 One
IOPIN 720 -224 In
FLAG 720 -192 VDD
IOPIN 720 -192 In
FLAG 720 -160 VSS
IOPIN 720 -160 In
FLAG 688 128 VDD
IOPIN 688 128 In
FLAG 688 160 VSS
IOPIN 688 160 In
FLAG 688 512 VDD
IOPIN 688 512 In
FLAG 688 544 VSS
IOPIN 688 544 In
FLAG 688 784 VDD
IOPIN 688 784 In
FLAG 688 816 VSS
IOPIN 688 816 In
FLAG 976 768 OUT
IOPIN 976 768 Out
FLAG 720 -288 T0
IOPIN 720 -288 In
FLAG 720 688 One
IOPIN 720 688 In
FLAG 224 -272 VDD
IOPIN 224 -272 In
FLAG 224 -240 VSS
IOPIN 224 -240 In
FLAG 224 80 VDD
IOPIN 224 80 In
FLAG 224 112 VSS
IOPIN 224 112 In
FLAG 224 432 VDD
IOPIN 224 432 In
FLAG 224 464 VSS
IOPIN 224 464 In
FLAG -160 -288 VDD
IOPIN -160 -288 In
FLAG -160 -256 VSS
IOPIN -160 -256 In
FLAG -160 64 VDD
IOPIN -160 64 In
FLAG -160 96 VSS
IOPIN -160 96 In
FLAG -160 416 VDD
IOPIN -160 416 In
FLAG -160 448 VSS
IOPIN -160 448 In
FLAG 464 448 VDD
IOPIN 464 448 In
FLAG 464 480 VSS
IOPIN 464 480 In
FLAG 464 0 VDD
IOPIN 464 0 In
FLAG 464 32 VSS
IOPIN 464 32 In
FLAG 464 -256 VDD
IOPIN 464 -256 In
FLAG 464 -224 VSS
IOPIN 464 -224 In
FLAG 464 -32 T1
IOPIN 464 -32 In
FLAG 720 416 T2
IOPIN 720 416 In
FLAG 176 -368 X3
IOPIN 176 -368 In
SYMBOL cmos_and 96 -144 R90
SYMATTR InstName AND1
SYMBOL cmos_and 96 208 R90
SYMATTR InstName AND2
SYMBOL cmos_and 96 560 R90
SYMATTR InstName AND3
SYMBOL cmp3_fulladderodd 816 752 R0
SYMATTR InstName CMP1
SYMBOL cmp0_final_sized 816 -224 R0
SYMATTR InstName CMP2
SYMBOL cmp1_final_sized 816 96 R0
SYMATTR InstName CMP3
SYMBOL cmp2_final_sized 816 480 R0
SYMATTR InstName CMP4
SYMBOL xor0_sized -64 -304 R0
SYMATTR InstName XOR1
SYMBOL xor0_sized -64 48 R0
SYMATTR InstName XOR2
SYMBOL xor0_sized -64 400 R0
SYMATTR InstName XOR3
SYMBOL xor3_sized 320 -288 R0
SYMATTR InstName XOR4
SYMBOL xor3_sized 320 64 R0
SYMATTR InstName XOR5
SYMBOL xor3_sized 320 416 R0
SYMATTR InstName XOR6
SYMBOL inverter_sized 560 -256 R0
SYMATTR InstName INV1
SYMBOL inverter_sized 560 0 R0
SYMATTR InstName INV2
SYMBOL inverter_sized 560 448 R0
SYMATTR InstName INV3
